models/240bus_psse/WECC240_v04_DPV_RE20_v33_6302_xfmr.raw
0,   100.00, 33, 0, 1, 60.00     / PSS(R)E-33.11   THU, NOV 11 2021   9:33
SIMPLIFIED WECC240 MODEL: PRELIMINARY DRAFT, RESEARCH ONLY
FOR PSERC PROJECT M21 - SEE PROJECT DOCUMENTS FOR DETAILS
  1001,'FOURCORN    ', 500.0000,1,   1,   3,   1,1.02601,  21.5865,1.10000,0.90000,1.10000,0.90000
  1002,'FOURCORN    ', 345.0000,1,   1,   3,   1,1.01400,  26.1627,1.10000,0.90000,1.10000,0.90000
  1003,'FOURCORN    ', 230.0000,1,   1,  10,   1,0.97318,  17.5021,1.10000,0.90000,1.10000,0.90000
  1004,'SAN JUAN    ', 345.0000,1,   1,  10,   1,1.04136,  39.3102,1.10000,0.90000,1.10000,0.90000
  1032,'FCNGN4CC    ',  20.0000,2,   1,  10,   1,1.01695,  26.7427,1.10000,0.90000,1.10000,0.90000
  1034,'SJUAN G4    ',  20.0000,2,   1,  10,   1,1.04389,  40.8921,1.10000,0.90000,1.10000,0.90000
  1101,'CORONADO    ', 500.0000,1,   1,   3,   1,1.01000,  -2.5381,1.10000,0.90000,1.10000,0.90000
  1102,'CHOLLA      ', 345.0000,1,   1,   3,   1,0.97921,   9.0727,1.10000,0.90000,1.10000,0.90000
  1131,'CORONADO    ',  20.0000,2,   1,   3,   1,1.01084,  -1.8102,1.10000,0.90000,1.10000,0.90000
  1201,'MOENKOPI    ', 500.0000,1,   1,   3,   1,1.08358,   1.8164,1.10000,0.90000,1.10000,0.90000
  1202,'NAVAJO      ', 500.0000,1,   1,   3,   1,1.08000,   4.8764,1.10000,0.90000,1.10000,0.90000
  1232,'NAVAJO 2    ',  20.0000,2,   1,   3,   1,1.08085,   5.7072,1.10000,0.90000,1.10000,0.90000
  1301,'MEAD        ', 500.0000,1,   1,   3,   1,1.04500,  -3.1650,1.10000,0.90000,1.10000,0.90000
  1302,'H ALLEN     ', 500.0000,1,   1,   9,   1,1.02721,  -2.2290,1.10000,0.90000,1.10000,0.90000
  1303,'H ALLEN     ', 345.0000,1,   1,   9,   1,1.00500,  -4.5447,1.10000,0.90000,1.10000,0.90000
  1331,'HOOVER      ',  20.0000,2,   1,   3,   1,1.04517,  -2.0846,1.10000,0.90000,1.10000,0.90000
  1333,'H ALLEN     ',  20.0000,2,   1,   9,   1,1.00873,  -3.0904,1.10000,0.90000,1.10000,0.90000
  1401,'PALOVRDE    ', 500.0000,1,   1,   3,   1,1.03500,  -7.3686,1.10000,0.90000,1.10000,0.90000
  1402,'WESTWING    ', 500.0000,1,   1,   3,   1,1.05764, -12.8524,1.10000,0.90000,1.10000,0.90000
  1403,'PARKER      ', 230.0000,1,   1,   3,   1,1.03633,  -7.6656,1.10000,0.90000,1.10000,0.90000
  1431,'PALOVRD2    ',  20.0000,2,   1,   3,   1,1.04080,  -5.0178,1.10000,0.90000,1.10000,0.90000
  2000,'MEXICO      ', 230.0000,1,   2,   7,   1,1.00000, -15.5040,1.10000,0.90000,1.10000,0.90000
  2030,'MEXICO      ',  20.0000,2,   2,   7,   1,1.00149, -14.8009,1.10000,0.90000,1.10000,0.90000
  2100,'IMPERIAL    ', 230.0000,1,   2,   2,   1,1.03500,  -9.1815,1.10000,0.90000,1.10000,0.90000
  2130,'IMPERIAL    ',  20.0000,2,   2,   2,   1,1.03587,  -8.8264,1.10000,0.90000,1.10000,0.90000
  2201,'MIGUEL      ', 500.0000,1,   2,   2,   1,0.98560, -26.7898,1.10000,0.90000,1.10000,0.90000
  2202,'MIGUEL      ', 230.0000,1,   2,   2,   1,0.98383, -28.3156,1.10000,0.90000,1.10000,0.90000
  2203,'MISSION     ', 230.0000,1,   2,   2,   1,1.00500, -29.4713,1.10000,0.90000,1.10000,0.90000
  2233,'MISSION     ',  20.0000,2,   2,   2,   1,1.00736, -29.1903,1.10000,0.90000,1.10000,0.90000
  2301,'IMPRLVLY    ', 500.0000,1,   2,   2,   1,1.03345, -11.9390,1.10000,0.90000,1.10000,0.90000
  2302,'IMPRLVLY    ', 230.0000,1,   2,   2,   1,1.03500, -10.9105,1.10000,0.90000,1.10000,0.90000
  2332,'IMPRLVLY    ',  20.0000,2,   2,   2,   1,1.03563, -10.6759,1.10000,0.90000,1.10000,0.90000
  2400,'DEVERS      ', 500.0000,1,   2,   2,   1,1.02304, -16.9684,1.10000,0.90000,1.10000,0.90000
  2401,'LUGO        ', 500.0000,1,   2,   2,   1,1.04965, -11.5150,1.10000,0.90000,1.10000,0.90000
  2402,'MIRALOMA    ', 500.0000,1,   2,   2,   1,1.02950, -16.9278,1.10000,0.90000,1.10000,0.90000
  2403,'VALLEY      ', 500.0000,1,   2,   2,   1,1.02151, -20.8701,1.10000,0.90000,1.10000,0.90000
  2404,'VINCENT     ', 500.0000,1,   2,   2,   1,1.03463,  -6.9098,1.10000,0.90000,1.10000,0.90000
  2405,'SYLMAR S    ', 230.0000,1,   2,   2,   1,1.01224, -10.7361,1.10000,0.90000,1.10000,0.90000
  2406,'EAGLROCK    ', 230.0000,1,   2,   2,   1,1.00749, -15.7130,1.10000,0.90000,1.10000,0.90000
  2407,'LITEHIPE    ', 230.0000,1,   2,   2,   1,0.96838, -23.3203,1.10000,0.90000,1.10000,0.90000
  2408,'MESA CAL    ', 230.0000,1,   2,   2,   1,1.00900, -10.2787,1.10000,0.90000,1.10000,0.90000
  2409,'MIRALOMA    ', 230.0000,1,   2,   2,   1,1.02000, -18.5634,1.10000,0.90000,1.10000,0.90000
  2410,'PARDEE      ', 230.0000,1,   2,   2,   1,1.00649, -14.3836,1.10000,0.90000,1.10000,0.90000
  2411,'VINCENT     ', 230.0000,1,   2,   2,   1,1.02020,  -9.3094,1.10000,0.90000,1.10000,0.90000
  2431,'LUGO        ',  20.0000,2,   2,   2,   1,1.05000, -11.4890,1.10000,0.90000,1.10000,0.90000
  2434,'VINCENT     ',  20.0000,2,   2,   2,   1,1.02000,  -9.2819,1.10000,0.90000,1.10000,0.90000
  2438,'MESA CAL    ',  20.0000,2,   2,   2,   1,1.01012,  -8.8552,1.10000,0.90000,1.10000,0.90000
  2439,'MIRALOMA    ',  20.0000,2,   2,   2,   1,1.01980, -18.5083,1.10000,0.90000,1.10000,0.90000
  2501,'SERRANO     ', 500.0000,1,   2,   2,   1,1.02409, -19.5162,1.10000,0.90000,1.10000,0.90000
  2502,'SERRANO     ', 230.0000,1,   2,   2,   1,1.02133, -21.2964,1.10000,0.90000,1.10000,0.90000
  2503,'S.ONOFRE    ', 230.0000,1,   2,   2,   1,1.00900, -24.5604,1.10000,0.90000,1.10000,0.90000
  2533,'S.ONOFRE    ',  20.0000,2,   2,   2,   1,1.01006, -24.0266,1.10000,0.90000,1.10000,0.90000
  2600,'ADELANTO    ', 500.0000,1,   2,   2,   1,1.05388,  -6.6891,1.10000,0.90000,1.10000,0.90000
  2601,'RINALDI     ', 500.0000,1,   2,   2,   1,1.04684,  -8.0426,1.10000,0.90000,1.10000,0.90000
  2602,'STA E       ', 500.0000,1,   2,   2,   1,1.02140,  -8.3374,1.10000,0.90000,1.10000,0.90000
  2603,'VICTORVL    ', 500.0000,1,   2,   2,   1,1.05452,  -7.3150,1.10000,0.90000,1.10000,0.90000
  2604,'INTERMT     ', 345.0000,1,   2,   2,   1,1.06000,  35.8174,1.10000,0.90000,1.10000,0.90000
  2605,'STA B1      ', 287.0000,1,   2,   2,   1,1.02052,  -6.5074,1.10000,0.90000,1.10000,0.90000
  2606,'STA B2      ', 287.0000,1,   2,   2,   1,1.02052,  -6.5074,1.10000,0.90000,1.10000,0.90000
  2607,'VICTORVL    ', 287.0000,1,   2,   2,   1,1.04719,  -7.0952,1.10000,0.90000,1.10000,0.90000
  2608,'CASTAIC     ', 230.0000,1,   2,   2,   1,1.02035, -10.2535,1.10000,0.90000,1.10000,0.90000
  2609,'GLENDAL     ', 230.0000,1,   2,   2,   1,0.99946,  -7.3615,1.10000,0.90000,1.10000,0.90000
  2610,'HAYNES      ', 230.0000,1,   2,   2,   1,1.00400,   6.6971,1.10000,0.90000,1.10000,0.90000
  2611,'OLIVE       ', 230.0000,1,   2,   2,   1,1.01795,  -9.4309,1.10000,0.90000,1.10000,0.90000
  2612,'RINALDI     ', 230.0000,1,   2,   2,   1,1.01500,  -9.6345,1.10000,0.90000,1.10000,0.90000
  2613,'RIVER       ', 230.0000,1,   2,   2,   1,0.99430,  -3.9590,1.10000,0.90000,1.10000,0.90000
  2614,'STA BLD     ', 230.0000,1,   2,   2,   1,1.00182,  -5.4439,1.10000,0.90000,1.10000,0.90000
  2615,'STA E       ', 230.0000,1,   2,   2,   1,1.00536,  -8.6983,1.10000,0.90000,1.10000,0.90000
  2616,'STA F       ', 230.0000,1,   2,   2,   1,0.99630,  -4.2648,1.10000,0.90000,1.10000,0.90000
  2617,'STA G       ', 230.0000,1,   2,   2,   1,0.99743,  -5.9546,1.10000,0.90000,1.10000,0.90000
  2618,'STA J       ', 230.0000,1,   2,   2,   1,1.01233, -10.8017,1.10000,0.90000,1.10000,0.90000
  2619,'SYLMARLA    ', 230.0000,1,   2,   2,   1,1.01371,  -9.2868,1.10000,0.90000,1.10000,0.90000
  2620,'VALLEY      ', 230.0000,1,   2,   2,   1,1.01003,  -9.7003,1.10000,0.90000,1.10000,0.90000
  2621,'STA B       ', 138.0000,1,   2,   2,   1,1.01259,  -6.4146,1.10000,0.90000,1.10000,0.90000
  2630,'HAYNES3G    ',  20.0000,2,   2,   2,   1,1.00488,   7.3451,1.10000,0.90000,1.10000,0.90000
  2631,'OLIVE       ',  20.0000,2,   2,   2,   1,1.01826,  -9.3668,1.10000,0.90000,1.10000,0.90000
  2634,'INTERM1G    ',  20.0000,2,   2,   2,   1,1.06202,  36.2085,1.10000,0.90000,1.10000,0.90000
  2637,'OWENS G     ',  20.0000,2,   2,   2,   1,1.01531,  -9.6122,1.10000,0.90000,1.10000,0.90000
  2638,'CASTAI4G    ',  20.0000,2,   2,   2,   1,1.02065, -10.2535,1.10000,0.90000,1.10000,0.90000
  2901,'ELDORADO    ', 500.0000,1,   2,   2,   1,1.09713,  -4.9221,1.10000,0.90000,1.10000,0.90000
  2902,'MOHAVE      ', 500.0000,1,   2,   2,   1,1.10925,  -7.0042,1.10000,0.90000,1.10000,0.90000
  3101,'EMBRCDRD    ', 230.0000,1,   2,   2,   1,0.98550,  -4.4506,1.10000,0.90000,1.10000,0.90000
  3102,'MARTIN      ', 230.0000,1,   2,   2,   1,0.99075,  -3.1943,1.10000,0.90000,1.10000,0.90000
  3103,'SANMATEO    ', 230.0000,1,   2,   2,   1,1.00000,  -1.2840,1.10000,0.90000,1.10000,0.90000
  3104,'MARTIN      ', 115.0000,1,   2,   2,   1,0.98695,  -8.9817,1.10000,0.90000,1.10000,0.90000
  3105,'POTRERO     ', 115.0000,1,   2,   2,   1,1.00000,  -9.3910,1.10000,0.90000,1.10000,0.90000
  3133,'SANMATEO    ',  20.0000,2,   2,   2,   1,1.00118,  -1.2752,1.10000,0.90000,1.10000,0.90000
  3135,'POTRERO     ',  20.0000,2,   2,   2,   1,1.00044,  -9.3280,1.10000,0.90000,1.10000,0.90000
  3201,'C.COSTA     ', 230.0000,1,   2,   2,   1,0.99570,   0.0650,1.10000,0.90000,1.10000,0.90000
  3202,'MORAGA      ', 230.0000,1,   2,   2,   1,0.99588,   0.2780,1.10000,0.90000,1.10000,0.90000
  3203,'NEWARK      ', 230.0000,1,   2,   2,   1,0.99775,  -0.1754,1.10000,0.90000,1.10000,0.90000
  3204,'PITSBURG    ', 230.0000,1,   2,   2,   1,1.01000,   3.4078,1.10000,0.90000,1.10000,0.90000
  3205,'SOBRANTE    ', 230.0000,1,   2,   2,   1,0.99788,   1.1047,1.10000,0.90000,1.10000,0.90000
  3234,'PITSBURG    ',  20.0000,2,   2,   2,   1,1.01216,   4.5271,1.10000,0.90000,1.10000,0.90000
  3301,'METCALF     ', 500.0000,1,   2,   2,   1,0.99699,   4.0041,1.10000,0.90000,1.10000,0.90000
  3302,'JEFFERSN    ', 230.0000,1,   2,   2,   1,0.98495,  -2.8645,1.10000,0.90000,1.10000,0.90000
  3303,'METCALF     ', 230.0000,1,   2,   2,   1,1.00000,   0.7877,1.10000,0.90000,1.10000,0.90000
  3304,'MONTAVIS    ', 230.0000,1,   2,   2,   1,0.98937,  -1.4355,1.10000,0.90000,1.10000,0.90000
  3305,'RAVENSWD    ', 230.0000,1,   2,   2,   1,0.99799,  -1.7053,1.10000,0.90000,1.10000,0.90000
  3333,'METCALF     ',  20.0000,2,   2,   2,   1,1.00228,   1.0195,1.10000,0.90000,1.10000,0.90000
  3401,'GREGG       ', 230.0000,1,   2,   2,   1,0.97807,  -9.6512,1.10000,0.90000,1.10000,0.90000
  3402,'HELMS PP    ', 230.0000,1,   2,   2,   1,1.00000,  -9.7901,1.10000,0.90000,1.10000,0.90000
  3403,'MC CALL     ', 230.0000,1,   2,   2,   1,1.00000,   2.8718,1.10000,0.90000,1.10000,0.90000
  3404,'PANOCHE     ', 230.0000,1,   2,   2,   1,0.99019,  -3.3559,1.10000,0.90000,1.10000,0.90000
  3405,'WILSON      ', 230.0000,1,   2,   2,   1,0.96803, -11.5069,1.10000,0.90000,1.10000,0.90000
  3432,'HELMS PP    ',  20.0000,2,   2,   2,   1,1.00068,  -9.7901,1.10000,0.90000,1.10000,0.90000
  3433,'MC CALL     ',  20.0000,2,   2,   2,   1,1.00026,   3.2230,1.10000,0.90000,1.10000,0.90000
  3501,'FULTON      ', 230.0000,1,   2,   2,   1,1.00000,   5.0976,1.10000,0.90000,1.10000,0.90000
  3531,'FULTON      ',  20.0000,2,   2,   2,   1,1.00057,   5.4094,1.10000,0.90000,1.10000,0.90000
  3601,'HUMBOLDT    ', 115.0000,1,   2,   2,   1,1.01500,  17.0609,1.10000,0.90000,1.10000,0.90000
  3631,'HUMBOLDT    ',  20.0000,2,   2,   2,   1,1.01496,  17.0879,1.10000,0.90000,1.10000,0.90000
  3701,'SUMMIT      ', 115.0000,1,   1,   9,   1,1.00000,   2.6222,1.10000,0.90000,1.10000,0.90000
  3731,'SUMMIT      ',  20.0000,2,   1,   9,   1,1.00054,   2.6858,1.10000,0.90000,1.10000,0.90000
  3801,'DIABLO      ', 500.0000,1,   2,   2,   1,1.04900,   4.5370,1.10000,0.90000,1.10000,0.90000
  3802,'GATES       ', 500.0000,1,   2,   2,   1,1.03214,  -0.9092,1.10000,0.90000,1.10000,0.90000
  3803,'MIDWAY      ', 500.0000,1,   2,   2,   1,1.04125,  -3.0265,1.10000,0.90000,1.10000,0.90000
  3804,'GATES       ', 230.0000,1,   2,   2,   1,1.00143,  -2.7348,1.10000,0.90000,1.10000,0.90000
  3805,'MIDWAY      ', 230.0000,1,   2,   2,   1,1.03500,  -2.7555,1.10000,0.90000,1.10000,0.90000
  3806,'MORROBAY    ', 230.0000,1,   2,   2,   1,1.01900,   0.3816,1.10000,0.90000,1.10000,0.90000
  3831,'DIABLO1     ',  20.0000,2,   2,   2,   1,1.04914,   5.0857,1.10000,0.90000,1.10000,0.90000
  3835,'MIDWAY      ',  20.0000,2,   2,   2,   1,1.03571,  -2.6542,1.10000,0.90000,1.10000,0.90000
  3836,'MORROBAY    ',  20.0000,2,   2,   2,   1,1.01900,   0.5689,1.10000,0.90000,1.10000,0.90000
  3891,'GATES1      ', 500.0000,1,   2,   2,   1,1.05173,  -6.3289,1.10000,0.90000,1.10000,0.90000
  3892,'MIDWAY1     ', 500.0000,1,   2,   2,   1,1.03284,   1.3872,1.10000,0.90000,1.10000,0.90000
  3893,'MIDWAY2     ', 500.0000,1,   2,   2,   1,1.03541, -11.2953,1.10000,0.90000,1.10000,0.90000
  3894,'MIDWAY3     ', 500.0000,1,   2,   2,   1,1.03262,   1.4610,1.10000,0.90000,1.10000,0.90000
  3895,'MIDWAY4     ', 500.0000,1,   2,   2,   1,1.03568, -11.3236,1.10000,0.90000,1.10000,0.90000
  3896,'MIDWAY5     ', 500.0000,1,   2,   2,   1,1.03316,   1.6826,1.10000,0.90000,1.10000,0.90000
  3897,'MIDWAY6     ', 500.0000,1,   2,   2,   1,1.03710, -11.1082,1.10000,0.90000,1.10000,0.90000
  3901,'LOSBANOS    ', 500.0000,1,   2,   2,   1,1.01415,   2.3533,1.10000,0.90000,1.10000,0.90000
  3902,'MOSSLAND    ', 500.0000,1,   2,   2,   1,1.00000,   5.7203,1.10000,0.90000,1.10000,0.90000
  3903,'TESLA       ', 500.0000,1,   2,   2,   1,0.99562,   7.7584,1.10000,0.90000,1.10000,0.90000
  3904,'VACA-DIX    ', 500.0000,1,   2,   2,   1,0.99012,   8.4998,1.10000,0.90000,1.10000,0.90000
  3905,'TABLE MT    ', 500.0000,1,   2,   2,   1,1.00175,  17.7095,1.10000,0.90000,1.10000,0.90000
  3906,'ROUND MT    ', 500.0000,1,   2,   2,   1,1.05156,  25.2549,1.10000,0.90000,1.10000,0.90000
  3907,'BELLOTA     ', 230.0000,1,   2,   2,   1,0.97160,  -9.4616,1.10000,0.90000,1.10000,0.90000
  3908,'BRIGHTON    ', 230.0000,1,   2,   2,   1,0.96521,  -7.6685,1.10000,0.90000,1.10000,0.90000
  3909,'COLGATE     ', 230.0000,1,   2,   2,   1,0.95810,  -2.5326,1.10000,0.90000,1.10000,0.90000
  3910,'CORTINA     ', 230.0000,1,   2,   2,   1,0.94464,  -1.5607,1.10000,0.90000,1.10000,0.90000
  3911,'COTWDPGE    ', 230.0000,1,   2,   2,   1,1.02219,  17.2843,1.10000,0.90000,1.10000,0.90000
  3912,'GLENN       ', 230.0000,1,   2,   2,   1,0.99351,   6.0779,1.10000,0.90000,1.10000,0.90000
  3913,'GOLDHILL    ', 230.0000,1,   2,   2,   1,0.98303,  -3.8506,1.10000,0.90000,1.10000,0.90000
  3914,'IGNACIO     ', 230.0000,1,   2,   2,   1,0.98871,   1.2293,1.10000,0.90000,1.10000,0.90000
  3915,'LAKEVILE    ', 230.0000,1,   2,   2,   1,0.99022,   1.2752,1.10000,0.90000,1.10000,0.90000
  3916,'LOGAN CR    ', 230.0000,1,   2,   2,   1,0.99034,   4.9266,1.10000,0.90000,1.10000,0.90000
  3917,'LOSBANOS    ', 230.0000,1,   2,   2,   1,1.00052,  -1.2463,1.10000,0.90000,1.10000,0.90000
  3918,'MOSSLAND    ', 230.0000,1,   2,   2,   1,0.99342,   0.5386,1.10000,0.90000,1.10000,0.90000
  3919,'PALERMO     ', 230.0000,1,   2,   2,   1,0.95764,   0.3288,1.10000,0.90000,1.10000,0.90000
  3920,'RIO OSO     ', 230.0000,1,   2,   2,   1,0.97308,  -2.3648,1.10000,0.90000,1.10000,0.90000
  3921,'ROUND MT    ', 230.0000,1,   2,   2,   1,1.07000,  28.1887,1.10000,0.90000,1.10000,0.90000
  3922,'TABLE MT    ', 230.0000,1,   2,   2,   1,0.97292,   6.4121,1.10000,0.90000,1.10000,0.90000
  3923,'TESLA       ', 230.0000,1,   2,   2,   1,1.01558,  -0.0672,1.10000,0.90000,1.10000,0.90000
  3924,'VACA-DIX    ', 230.0000,1,   2,   2,   1,0.99211,   1.8235,1.10000,0.90000,1.10000,0.90000
  3925,'COTWDPGE    ', 115.0000,1,   2,   2,   1,1.01976,  17.1590,1.10000,0.90000,1.10000,0.90000
  3926,'RIO OSO     ', 115.0000,1,   2,   2,   1,0.98240,  -0.9337,1.10000,0.90000,1.10000,0.90000
  3931,'ROUND MT    ',  20.0000,2,   2,   2,   1,1.07145,  28.5503,1.10000,0.90000,1.10000,0.90000
  3932,'MOSSLAND    ',  20.0000,2,   2,   2,   1,0.99999,   6.1085,1.10000,0.90000,1.10000,0.90000
  3933,'TESLA       ',  20.0000,3,   2,   2,   1,1.02000,   0.0000,1.10000,0.90000,1.10000,0.90000
  4001,'MALIN       ', 500.0000,1,   3,  11,   1,1.08000,  29.5969,1.10000,0.90000,1.10000,0.90000
  4002,'SUMMER L    ', 500.0000,1,   3,  11,   1,1.10895,  38.9184,1.10000,0.90000,1.10000,0.90000
  4003,'BURNS       ', 500.0000,1,   3,  11,   1,1.13879,  52.2286,1.10000,0.90000,1.10000,0.90000
  4004,'GRIZZLY     ', 500.0000,1,   3,  11,   1,1.10862,  40.2275,1.10000,0.90000,1.10000,0.90000
  4005,'JOHN DAY    ', 500.0000,1,   3,  11,   1,1.12100,  49.8550,1.10000,0.90000,1.10000,0.90000
  4006,'BIG EDDY    ', 500.0000,1,   3,  11,   1,1.11813,  47.4038,1.10000,0.90000,1.10000,0.90000
  4007,'CELILOCA    ', 500.0000,1,   3,  11,   1,1.11859,  47.2801,1.10000,0.90000,1.10000,0.90000
  4008,'MALIN       ', 345.0000,1,   3,  11,   1,1.07463,  27.2103,1.10000,0.90000,1.10000,0.90000
  4009,'BIG EDDY    ', 230.0000,1,   3,  11,   1,1.13005,  45.8504,1.10000,0.90000,1.10000,0.90000
  4010,'CELILO      ', 230.0000,1,   3,  11,   1,1.12714,  45.4843,1.10000,0.90000,1.10000,0.90000
  4031,'MALIN       ',  20.0000,2,   3,  11,   1,1.08562,  30.0191,1.10000,0.90000,1.10000,0.90000
  4035,'JOHN DAY    ',  20.0000,2,   3,  11,   1,1.12795,  50.4305,1.10000,0.90000,1.10000,0.90000
  4039,'DALLES21    ',  20.0000,2,   3,  13,   1,1.13695,  46.4067,1.10000,0.90000,1.10000,0.90000
  4090,'MALIN1      ', 500.0000,1,   3,  11,   1,1.10462,  37.5784,1.10000,0.90000,1.10000,0.90000
  4091,'GRIZZLY1    ', 500.0000,1,   3,  11,   1,1.11287,  39.6711,1.10000,0.90000,1.10000,0.90000
  4092,'GRIZZLY2    ', 500.0000,1,   3,  11,   1,1.09745,  32.2376,1.10000,0.90000,1.10000,0.90000
  4093,'GRIZZLY3    ', 500.0000,1,   3,  11,   1,1.09776,  31.1920,1.10000,0.90000,1.10000,0.90000
  4094,'GRIZZLY4    ', 500.0000,1,   3,  11,   1,1.10471,  39.1683,1.10000,0.90000,1.10000,0.90000
  4095,'GRIZZLY5    ', 500.0000,1,   3,  11,   1,1.09657,  31.7802,1.10000,0.90000,1.10000,0.90000
  4096,'GRIZZLY6    ', 500.0000,1,   3,  11,   1,1.09701,  30.6746,1.10000,0.90000,1.10000,0.90000
  4097,'GRIZZLY7    ', 500.0000,1,   3,  11,   1,1.10404,  39.1104,1.10000,0.90000,1.10000,0.90000
  4101,'COULEE      ', 500.0000,1,   3,  13,   1,1.12800,  75.0508,1.10000,0.90000,1.10000,0.90000
  4102,'HANFORD     ', 500.0000,1,   3,  13,   1,1.09600,  64.5587,1.10000,0.90000,1.10000,0.90000
  4103,'BELL        ', 500.0000,1,   3,  13,   1,1.09352,  60.0340,1.10000,0.90000,1.10000,0.90000
  4104,'BELL        ', 230.0000,1,   3,  13,   1,1.07068,  49.1288,1.10000,0.90000,1.10000,0.90000
  4131,'COULEE      ',  20.0000,2,   3,  13,   1,1.13267,  77.1500,1.10000,0.90000,1.10000,0.90000
  4132,'HANFORD     ',  20.0000,2,   3,  13,   1,1.09977,  66.3589,1.10000,0.90000,1.10000,0.90000
  4201,'NORTH       ', 500.0000,1,   3,  13,   1,1.10756,  67.3328,1.10000,0.90000,1.10000,0.90000
  4202,'WCASCADE    ', 500.0000,1,   3,  13,   1,1.06000,  48.0775,1.10000,0.90000,1.10000,0.90000
  4203,'WILLAMET    ', 500.0000,1,   3,  13,   1,1.01358,  42.7131,1.10000,0.90000,1.10000,0.90000
  4204,'MERIDIAN    ', 500.0000,1,   3,  13,   1,1.06816,  30.7388,1.10000,0.90000,1.10000,0.90000
  4231,'NORTH G3    ',  20.0000,2,   3,  13,   1,1.12162,  68.3757,1.10000,0.90000,1.10000,0.90000
  4232,'WCASCADE    ',  20.0000,2,   3,  13,   1,1.05963,  48.3290,1.10000,0.90000,1.10000,0.90000
  5001,'CANADA      ', 500.0000,1,   3,   4,   1,1.05000,  67.6912,1.10000,0.90000,1.10000,0.90000
  5002,'CANALB      ', 500.0000,1,   3,   1,   1,1.05500,  68.5396,1.10000,0.90000,1.10000,0.90000
  5003,'CA230TO     ', 230.0000,1,   3,   1,   1,1.05272,  62.0801,1.10000,0.90000,1.10000,0.90000
  5004,'CA230       ', 230.0000,1,   3,   4,   1,1.06344,  55.5033,1.10000,0.90000,1.10000,0.90000
  5031,'CANAD G1    ',  20.0000,2,   3,   4,   1,1.04438,  69.6648,1.10000,0.90000,1.10000,0.90000
  5032,'CMAIN GM    ',  20.0000,2,   3,   1,   1,1.06127,  71.2249,1.10000,0.90000,1.10000,0.90000
  6101,'MIDPOINT    ', 500.0000,1,   3,   6,   1,1.14471,  67.3242,1.10000,0.90000,1.10000,0.90000
  6102,'MIDPOINT    ', 345.0000,1,   3,   6,   1,1.13000,  71.3753,1.10000,0.90000,1.10000,0.90000
  6103,'BORAH       ', 345.0000,1,   3,   6,   1,1.08712,  67.4060,1.10000,0.90000,1.10000,0.90000
...
0 / END OF BUS DATA, BEGIN LOAD DATA
  1002,'1 ',1,   1,   3,   226.842,  -600.000,     0.000,     0.000,     0.000,     0.000,   1,1,0
  1003,'1 ',1,   1,  10,  2153.320,   366.855,     0.000,     0.000,     0.000,     0.000,   1,1,0
  1004,'1 ',1,   1,  10,  1037.949,     5.521,     0.000,     0.000,     0.000,     0.000,   1,1,0
  1101,'1 ',1,   1,   3,  4527.366,  -137.044,     0.000,     0.000,     0.000,     0.000,   1,1,0
  1102,'1 ',1,   1,   3,   176.445,    23.004,     0.000,     0.000,     0.000,     0.000,   1,1,0
  1201,'1 ',1,   1,   3,   166.989,    -2.012,     0.000,     0.000,     0.000,     0.000,   1,1,0
  1202,'1 ',1,   1,   3,   875.610,   287.132,     0.000,     0.000,     0.000,     0.000,   1,1,0
  1301,'1 ',1,   1,   3,  2704.779,   352.826,     0.000,     0.000,     0.000,     0.000,   1,1,0
  1302,'1 ',1,   1,   9,    17.556,     2.304,     0.000,     0.000,     0.000,     0.000,   1,1,0
  1303,'1 ',1,   1,   9,  6235.137,   813.349,     0.000,     0.000,     0.000,     0.000,   1,1,0
  1401,'1 ',1,   1,   3,  6535.537,  1524.594,     0.000,     0.000,     0.000,     0.000,   1,1,0
  1402,'1 ',1,   1,   3,  5366.628,  -600.161,     0.000,     0.000,     0.000,     0.000,   1,1,0
  2000,'1 ',1,   2,   7,  2207.188,   287.916,     0.000,     0.000,     0.000,     0.000,   1,1,0
  2100,'1 ',1,   2,   2,   281.150,    54.830,     0.000,     0.000,     0.000,     0.000,   1,1,0
  2202,'1 ',1,   2,   2,  1545.957,   268.567,     0.000,     0.000,     0.000,     0.000,   1,1,0
  2203,'1 ',1,   2,   2,  1708.552,   278.273,     0.000,     0.000,     0.000,     0.000,   1,1,0
  2400,'1 ',1,   2,   2,   843.297,    76.664,     0.000,     0.000,     0.000,     0.000,   1,1,0
  2401,'1 ',1,   2,   2,   882.365,   105.214,     0.000,     0.000,     0.000,     0.000,   1,1,0
  2402,'1 ',1,   2,   2,  1080.022,    81.979,     0.000,     0.000,     0.000,     0.000,   1,1,0
  2403,'1 ',1,   2,   2,  1050.001,    38.542,     0.000,     0.000,     0.000,     0.000,   1,1,0
  2405,'1 ',1,   2,   2,   824.686,    22.901,     0.000,     0.000,     0.000,     0.000,   1,1,0
  2406,'1 ',1,   2,   2,   737.405,   -40.751,     0.000,     0.000,     0.000,     0.000,   1,1,0
  2407,'1 ',1,   2,   2,  1732.775,   -36.535,     0.000,     0.000,     0.000,     0.000,   1,1,0
  2408,'1 ',1,   2,   2,  1743.278,   -72.623,     0.000,     0.000,     0.000,     0.000,   1,1,0
  2409,'1 ',1,   2,   2,  1601.778,   -86.698,     0.000,     0.000,     0.000,     0.000,   1,1,0
  2410,'1 ',1,   2,   2,  1576.785,    58.184,     0.000,     0.000,     0.000,     0.000,   1,1,0
  2411,'1 ',1,   2,   2,  1087.628,    75.956,     0.000,     0.000,     0.000,     0.000,   1,1,0
  2502,'1 ',1,   2,   2,  2369.146,   -91.905,     0.000,     0.000,     0.000,     0.000,   1,1,0
  2503,'1 ',1,   2,   2,  1845.926,   201.991,     0.000,     0.000,     0.000,     0.000,   1,1,0
  2600,'1 ',1,   2,   2, -1863.906,     0.000,     0.000,     0.000,     0.000,     0.000,   1,1,0
  2602,'1 ',1,   2,   2,    99.278,    12.955,     0.000,     0.000,     0.000,     0.000,   1,1,0
  2604,'1 ',1,   2,   2,  2050.781,     0.000,     0.000,     0.000,     0.000,     0.000,   1,1,0
  2608,'1 ',1,   2,   2,    99.278,    12.955,     0.000,     0.000,     0.000,     0.000,   1,1,0
  2609,'1 ',1,   2,   2,   134.026,    26.805,     0.000,     0.000,     0.000,     0.000,   1,1,0
  2610,'1 ',1,   2,   2,    99.278,    12.955,     0.000,     0.000,     0.000,     0.000,   1,1,0
  2611,'1 ',1,   2,   2,    99.278,    12.955,     0.000,     0.000,     0.000,     0.000,   1,1,0
  2612,'1 ',1,   2,   2,   120.127,    24.819,     0.000,     0.000,     0.000,     0.000,   1,1,0
  2613,'1 ',1,   2,   2,   317.693,    64.531,     0.000,     0.000,     0.000,     0.000,   1,1,0
  2614,'1 ',1,   2,   2,   137.005,    27.798,     0.000,     0.000,     0.000,     0.000,   1,1,0
  2615,'1 ',1,   2,   2,   801.977,   131.149,     0.000,     0.000,     0.000,     0.000,   1,1,0
  2616,'1 ',1,   2,   2,   116.157,    23.827,     0.000,     0.000,     0.000,     0.000,   1,1,0
  2617,'1 ',1,   2,   2,   120.128,    24.819,     0.000,     0.000,     0.000,     0.000,   1,1,0
  2618,'1 ',1,   2,   2,   881.302,    -6.155,     0.000,     0.000,     0.000,     0.000,   1,1,0
  2619,'1 ',1,   2,   2, -2773.830,     0.000,     0.000,     0.000,     0.000,     0.000,   1,1,0
  2620,'1 ',1,   2,   2,   203.720,    17.473,     0.000,     0.000,     0.000,     0.000,   1,1,0
  2621,'1 ',1,   2,   2,   235.491,   -62.746,     0.000,     0.000,     0.000,     0.000,   1,1,0
  3101,'1 ',1,   2,   2,   341.307,    52.829,     0.000,     0.000,     0.000,     0.000,   1,1,0
  3102,'1 ',1,   2,   2,   159.465,    24.929,     0.000,     0.000,     0.000,     0.000,   1,1,0
  3103,'1 ',1,   2,   2,   419.611,    59.777,     0.000,     0.000,     0.000,     0.000,   1,1,0
  3104,'1 ',1,   2,   2,   309.973,    40.133,     0.000,     0.000,     0.000,     0.000,   1,1,0
  3105,'1 ',1,   2,   2,   239.302,    49.091,     0.000,     0.000,     0.000,     0.000,   1,1,0
  3201,'1 ',1,   2,   2,   462.477,    97.849,     0.000,     0.000,     0.000,     0.000,   1,1,0
  3202,'1 ',1,   2,   2,   586.180,    83.474,     0.000,     0.000,     0.000,     0.000,   1,1,0
  3203,'1 ',1,   2,   2,   657.104,   158.475,     0.000,     0.000,     0.000,     0.000,   1,1,0
  3204,'1 ',1,   2,   2,   668.788,    95.313,     0.000,     0.000,     0.000,     0.000,   1,1,0
  3205,'1 ',1,   2,   2,   546.059,    77.781,     0.000,     0.000,     0.000,     0.000,   1,1,0
  3302,'1 ',1,   2,   2,   345.326,    85.790,     0.000,     0.000,     0.000,     0.000,   1,1,0
  3303,'1 ',1,   2,   2,   625.411,   150.715,     0.000,     0.000,     0.000,     0.000,   1,1,0
  3304,'1 ',1,   2,   2,   533.480,   122.615,     0.000,     0.000,     0.000,     0.000,   1,1,0
  3305,'1 ',1,   2,   2,   430.321,    61.225,     0.000,     0.000,     0.000,     0.000,   1,1,0
  3401,'1 ',1,   2,   2,   557.707,   135.909,     0.000,     0.000,     0.000,     0.000,   1,1,0
  3403,'1 ',1,   2,   2,   515.969,    73.583,     0.000,     0.000,     0.000,     0.000,   1,1,0
  3404,'1 ',1,   2,   2,   438.463,    62.076,     0.000,     0.000,     0.000,     0.000,   1,1,0
  3405,'1 ',1,   2,   2,   448.896,    63.723,     0.000,     0.000,     0.000,     0.000,   1,1,0
  3501,'1 ',1,   2,   2,   625.016,    89.015,     0.000,     0.000,     0.000,     0.000,   1,1,0
  3601,'1 ',1,   2,   2,   104.856,    14.845,     0.000,     0.000,     0.000,     0.000,   1,1,0
  3701,'1 ',1,   1,   9,   317.051,    15.847,     0.000,     0.000,     0.000,     0.000,   1,1,0
  3801,'1 ',1,   2,   2,   191.223,    47.411,     0.000,     0.000,     0.000,     0.000,   1,1,0
  3804,'1 ',1,   2,   2,   223.641,    55.319,     0.000,     0.000,     0.000,     0.000,   1,1,0
  3805,'1 ',1,   2,   2,   499.389,   163.106,     0.000,     0.000,     0.000,     0.000,   1,1,0
  3806,'1 ',1,   2,   2,   289.586,    41.366,     0.000,     0.000,     0.000,     0.000,   1,1,0
  3902,'1 ',1,   2,   2,   152.991,    38.248,     0.000,     0.000,     0.000,     0.000,   1,1,0
  3903,'1 ',1,   2,   2,   213.253,    30.271,     0.000,     0.000,     0.000,     0.000,   1,1,0
  3907,'1 ',1,   2,   2,   461.358,    63.071,     0.000,     0.000,     0.000,     0.000,   1,1,0
  3908,'1 ',1,   2,   2,   200.281,    24.716,     0.000,     0.000,     0.000,     0.000,   1,1,0
  3909,'1 ',1,   2,   2,   170.960,    39.786,     0.000,     0.000,     0.000,     0.000,   1,1,0
  3910,'1 ',1,   2,   2,   241.844,    34.442,     0.000,     0.000,     0.000,     0.000,   1,1,0
  3911,'1 ',1,   2,   2,   233.138,    47.116,     0.000,     0.000,     0.000,     0.000,   1,1,0
  3912,'1 ',1,   2,   2,   174.507,    -0.634,     0.000,     0.000,     0.000,     0.000,   1,1,0
  3913,'1 ',1,   2,   2,   329.548,    43.435,     0.000,     0.000,     0.000,     0.000,   1,1,0
  3914,'1 ',1,   2,   2,   227.755,    52.549,     0.000,     0.000,     0.000,     0.000,   1,1,0
  3915,'1 ',1,   2,   2,   254.460,    53.403,     0.000,     0.000,     0.000,     0.000,   1,1,0
  3916,'1 ',1,   2,   2,   155.005,     0.000,     0.000,     0.000,     0.000,     0.000,   1,1,0
  3917,'1 ',1,   2,   2,   238.189,    43.995,     0.000,     0.000,     0.000,     0.000,   1,1,0
  3918,'1 ',1,   2,   2,   319.281,    75.463,     0.000,     0.000,     0.000,     0.000,   1,1,0
  3919,'1 ',1,   2,   2,   184.512,    24.095,     0.000,     0.000,     0.000,     0.000,   1,1,0
  3920,'1 ',1,   2,   2,   172.503,    23.677,     0.000,     0.000,     0.000,     0.000,   1,1,0
  3921,'1 ',1,   2,   2,   150.890,    34.821,     0.000,     0.000,     0.000,     0.000,   1,1,0
  3922,'1 ',1,   2,   2,   253.450,    31.920,     0.000,     0.000,     0.000,     0.000,   1,1,0
  3923,'1 ',1,   2,   2,   399.063,    67.021,     0.000,     0.000,     0.000,     0.000,   1,1,0
  3924,'1 ',1,   2,   2,   332.490,    47.166,     0.000,     0.000,     0.000,     0.000,   1,1,0
  3926,'1 ',1,   2,   2,   267.355,    16.668,     0.000,     0.000,     0.000,     0.000,   1,1,0
  4002,'1 ',1,   3,  11,   168.696,    22.001,     0.000,     0.000,     0.000,     0.000,   1,1,0
  4004,'1 ',1,   3,  11,   270.476,    35.304,     0.000,     0.000,     0.000,     0.000,   1,1,0
  4005,'1 ',1,   3,  11,   480.114,   157.419,     0.000,     0.000,     0.000,     0.000,   1,1,0
  4008,'1 ',1,   3,  11,   285.145,    37.198,     0.000,     0.000,     0.000,     0.000,   1,1,0
  4009,'1 ',1,   3,  11,  2208.742,   431.395,     0.000,     0.000,     0.000,     0.000,   1,1,0
  4010,'1 ',1,   3,  11,  3133.542,     0.000,     0.000,     0.000,     0.000,     0.000,   1,1,0
  4101,'1 ',1,   3,  13,   995.028,   129.784,     0.000,     0.000,     0.000,     0.000,   1,1,0
  4102,'1 ',1,   3,  13,   480.649,    68.664,     0.000,     0.000,     0.000,     0.000,   1,1,0
  4103,'1 ',1,   3,  13,    11.534,     1.485,     0.000,     0.000,     0.000,     0.000,   1,1,0
  4104,'1 ',1,   3,  13,  2521.452,   328.093,     0.000,     0.000,     0.000,     0.000,   1,1,0
  4201,'1 ',1,   3,  13,  5762.659,   461.013,     0.000,     0.000,     0.000,     0.000,   1,1,0
  4202,'1 ',1,   3,  13,  4558.239,   594.626,     0.000,     0.000,     0.000,     0.000,   1,1,0
  4203,'1 ',1,   3,  13,  4379.174,   571.213,     0.000,     0.000,     0.000,     0.000,   1,1,0
  4204,'1 ',1,   3,  13,  1014.517,   132.339,     0.000,     0.000,     0.000,     0.000,   1,1,0
  5001,'1 ',1,   3,   4,  7574.052,  1721.375,     0.000,     0.000,     0.000,     0.000,   1,1,0
  5002,'1 ',1,   3,   1,  9003.983,  1174.359,     0.000,     0.000,     0.000,     0.000,   1,1,0
  5003,'1 ',1,   3,   1,   616.617,    80.618,     0.000,     0.000,     0.000,     0.000,   1,1,0
  6102,'1 ',1,   3,   6,  1053.144,  -345.277,     0.000,     0.000,     0.000,     0.000,   1,1,0
  6103,'1 ',1,   3,   6,   391.884,    51.109,     0.000,     0.000,     0.000,     0.000,   1,1,0
  6104,'1 ',1,   3,   6,  1694.827,   221.051,     0.000,     0.000,     0.000,     0.000,   1,1,0
  6201,'1 ',1,   3,   8,   205.820,    26.857,     0.000,     0.000,     0.000,     0.000,   1,1,0
  6202,'1 ',1,   3,   8,    88.645,    13.505,     0.000,     0.000,     0.000,     0.000,   1,1,0
  6203,'1 ',1,   3,   8,   612.344,   145.092,     0.000,     0.000,     0.000,     0.000,   1,1,0
  6204,'1 ',1,   3,   8,   698.958,   156.310,     0.000,     0.000,     0.000,     0.000,   1,1,0
  6205,'1 ',1,   3,   8,   489.283,    86.344,     0.000,     0.000,     0.000,     0.000,   1,1,0
  6301,'1 ',1,   3,  14,   516.375,    67.362,     0.000,     0.000,     0.000,     0.000,   1,1,0
  6302,'1 ',1,   3,  14,   591.831,    77.222,     0.000,     0.000,     0.000,     0.000,   1,1,0
  6303,'1 ',1,   3,  14,   746.602,    97.404,     0.000,     0.000,     0.000,     0.000,   1,1,0
  6305,'1 ',1,   3,  14,    60.232,    19.752,     0.000,     0.000,     0.000,     0.000,   1,1,0
  6401,'1 ',1,   1,   9,  1672.454,   218.169,     0.000,     0.000,     0.000,     0.000,   1,1,0
  6402,'1 ',1,   1,   9,   272.521,    35.568,     0.000,     0.000,     0.000,     0.000,   1,1,0
  6403,'1 ',1,   1,   9,     2.198,     0.272,     0.000,     0.000,     0.000,     0.000,   1,1,0
  6404,'1 ',1,   1,   9,    28.981,     3.776,     0.000,     0.000,     0.000,     0.000,   1,1,0
  6501,'1 ',1,   3,  12,   195.548,    64.130,     0.000,     0.000,     0.000,     0.000,   1,1,0
  6502,'1 ',1,   3,  12,  1555.598,   277.679,     0.000,     0.000,     0.000,     0.000,   1,1,0
  6503,'1 ',1,   3,  12,   441.153,   144.603,     0.000,     0.000,     0.000,     0.000,   1,1,0
  6504,'1 ',1,   3,  12,   296.971,    38.731,     0.000,     0.000,     0.000,     0.000,   1,1,0
  6505,'1 ',1,   3,  12,     6.795,     2.231,     0.000,     0.000,     0.000,     0.000,   1,1,0
  6507,'1 ',1,   3,  12,   540.787,   -61.357,     0.000,     0.000,     0.000,     0.000,   1,1,0
  6508,'1 ',1,   3,  12,   131.835,    43.209,     0.000,     0.000,     0.000,     0.000,   1,1,0
  6509,'1 ',1,   3,  12,     8.593,     2.817,     0.000,     0.000,     0.000,     0.000,   1,1,0
  6510,'1 ',1,   3,  12,  1900.043,  -103.882,     0.000,     0.000,     0.000,     0.000,   1,1,0
  7001,'1 ',1,   3,   5,  7000.918,   772.350,     0.000,     0.000,     0.000,     0.000,   1,1,0
  7002,'1 ',1,   3,   5,  2554.834,  -138.069,     0.000,     0.000,     0.000,     0.000,   1,1,0
  8003,'1 ',1,   2,   2,   652.672,    85.141,     0.000,     0.000,     0.000,     0.000,   1,1,0
  8004,'1 ',1,   2,   2,  3787.893,   494.110,     0.000,     0.000,     0.000,     0.000,   1,1,0
  8005,'1 ',1,   2,   2,  1321.252,   172.374,     0.000,     0.000,     0.000,     0.000,   1,1,0
0 / END OF LOAD DATA, BEGIN FIXED SHUNT DATA
0 / END OF FIXED SHUNT DATA, BEGIN GENERATOR DATA
  1003,'DP',    19.000,     0.000,     0.000,     0.000,1.00000,     0,    94.000, 0.00000E+0, 2.00000E-1, 0.00000E+0, 0.00000E+0,1.00000,1,  100.0,    89.300,     0.000,   1,1.0000,   0,   1.0,   0,   1.0,   0,   1.0,3, 1.0000
  1004,'DP',     9.000,     0.000,     0.000,     0.000,1.00000,     0,    45.000, 0.00000E+0, 2.00000E-1, 0.00000E+0, 0.00000E+0,1.00000,1,  100.0,    42.750,     0.000,   1,1.0000,   0,   1.0,   0,   1.0,   0,   1.0,3, 1.0000
  1032,'C ',   712.000,   208.480,  1030.000, -1030.000,1.01400,  1002,   873.000, 0.00000E+0, 2.00000E-1, 0.00000E+0, 0.00000E+0,1.00000,1,  100.0,   829.350,     0.000,   1,1.0000
  1032,'G ',   856.000,   250.644,   357.000,  -357.000,1.01400,  1002,  1050.000, 0.00000E+0, 2.00000E-1, 0.00000E+0, 0.00000E+0,1.00000,1,  100.0,   997.500,     0.000,   1,1.0000
  1032,'S ',   520.000,   152.260,   360.000,  -360.000,1.01400,  1002,   638.000, 0.00000E+0, 2.00000E-1, 0.00000E+0, 0.00000E+0,1.00000,1,  100.0,   606.100,     0.000,   1,1.0000,   0,   1.0,   0,   1.0,   0,   1.0,1, 1.0000
  1034,'C ',  1847.000,   188.142,  2294.000, -2294.000,1.01400,  1002,  1944.000, 0.00000E+0, 2.00000E-1, 0.00000E+0, 0.00000E+0,1.00000,1,  100.0,  1846.800,     0.000,   1,1.0000
  1034,'G ',  2565.000,   261.280,   918.000,  -918.000,1.01400,  1002,  2700.000, 0.00000E+0, 2.00000E-1, 0.00000E+0, 0.00000E+0,1.00000,1,  100.0,  2565.000,     0.000,   1,1.0000
  1034,'S ',     0.000,     0.000,     0.000,     0.000,1.01400,  1002,     1.000, 0.00000E+0, 2.00000E-1, 0.00000E+0, 0.00000E+0,1.00000,0,  100.0,     0.100,     0.000,   1,1.0000,   0,   1.0,   0,   1.0,   0,   1.0,1, 1.0000
  1034,'W ',  1590.000,   161.963,   800.000,  -800.000,1.01400,  1002,  1682.000, 0.00000E+0, 2.00000E-1, 0.00000E+0, 0.00000E+0,1.00000,1,  100.0,  1597.900,     0.000,   1,1.0000,   0,   1.0,   0,   1.0,   0,   1.0,1, 1.0000
  1101,'DP',    59.000,     0.000,     0.000,     0.000,1.00000,     0,   295.000, 0.00000E+0, 2.00000E-1, 0.00000E+0, 0.00000E+0,1.00000,1,  100.0,   280.250,     0.000,   1,1.0000,   0,   1.0,   0,   1.0,   0,   1.0,3, 1.0000
  1131,'C ',   530.000,    37.972,   308.000,  -308.000,1.01000,  1101,  1268.000, 0.00000E+0, 2.00000E-1, 0.00000E+0, 0.00000E+0,1.00000,1,  100.0,  1204.600,     0.000,   1,1.0000
  1131,'G ',  2064.000,   147.877,  1916.000, -1916.000,1.01000,  1101,  4934.000, 0.00000E+0, 2.00000E-1, 0.00000E+0, 0.00000E+0,1.00000,1,  100.0,  4687.300,     0.000,   1,1.0000
  1131,'S ',     0.000,     0.000,     0.000,     0.000,1.01000,  1101,     1.000, 0.00000E+0, 2.00000E-1, 0.00000E+0, 0.00000E+0,1.00000,0,  100.0,     0.100,     0.000,   1,1.0000,   0,   1.0,   0,   1.0,   0,   1.0,1, 1.0000
  1232,'C ',  2728.000,   167.292,  1208.000, -1208.000,1.08000,  1202,  4977.000, 0.00000E+0, 2.00000E-1, 0.00000E+0, 0.00000E+0,1.00000,1,  100.0,  4728.150,     0.000,   1,1.0000
  1232,'H ',   657.000,    40.290,   628.000,  -628.000,1.08000,  1202,  1199.000, 0.00000E+0, 2.00000E-1, 0.00000E+0, 0.00000E+0,1.00000,1,  100.0,  1139.050,     0.000,   1,1.0000
  1232,'S ',     0.000,     0.000,     0.000,     0.000,1.08000,  1202,     1.000, 0.00000E+0, 2.00000E-1, 0.00000E+0, 0.00000E+0,1.00000,0,  100.0,     0.100,     0.000,   1,1.0000,   0,   1.0,   0,   1.0,   0,   1.0,1, 1.0000
  1301,'DP',    35.000,     0.000,     0.000,     0.000,1.00000,     0,   176.000, 0.00000E+0, 2.00000E-1, 0.00000E+0, 0.00000E+0,1.00000,1,  100.0,   167.200,     0.000,   1,1.0000,   0,   1.0,   0,   1.0,   0,   1.0,3, 1.0000
  1303,'DP',    45.000,     0.000,     0.000,     0.000,1.00000,     0,   224.000, 0.00000E+0, 2.00000E-1, 0.00000E+0, 0.00000E+0,1.00000,1,  100.0,   212.800,     0.000,   1,1.0000,   0,   1.0,   0,   1.0,   0,   1.0,3, 1.0000
  1331,'G ',  1986.000,    36.252,   841.000,  -841.000,1.04500,  1301,  2167.000, 0.00000E+0, 2.00000E-1, 0.00000E+0, 0.00000E+0,1.00000,1,  100.0,  2058.650,     0.000,   1,1.0000
  1331,'H ',  2133.000,    38.935,  1219.000, -1219.000,1.04500,  1301,  2328.000, 0.00000E+0, 2.00000E-1, 0.00000E+0, 0.00000E+0,1.00000,1,  100.0,  2211.600,     0.000,   1,1.0000
  1331,'S ',     0.000,     0.000,     0.000,     0.000,1.04500,  1301,     1.000, 0.00000E+0, 2.00000E-1, 0.00000E+0, 0.00000E+0,1.00000,0,  100.0,     0.100,     0.000,   1,1.0000,   0,   1.0,   0,   1.0,   0,   1.0,1, 1.0000
  1333,'C ',   218.000,    34.638,   303.000,  -303.000,1.00500,  1303,   418.000, 0.00000E+0, 2.00000E-1, 0.00000E+0, 0.00000E+0,1.00000,1,  100.0,   397.100,     0.000,   1,1.0000
  1333,'G ',  3662.000,   581.857,  2746.000, -2746.000,1.00500,  1303,  7011.000, 0.00000E+0, 2.00000E-1, 0.00000E+0, 0.00000E+0,1.00000,1,  100.0,  6660.450,     0.000,   1,1.0000
  1333,'S ',  1266.000,   201.155,  1300.000, -1300.000,1.00500,  1303,  2423.000, 0.00000E+0, 2.00000E-1, 0.00000E+0, 0.00000E+0,1.00000,1,  100.0,  2301.850,     0.000,   1,1.0000,   0,   1.0,   0,   1.0,   0,   1.0,1, 1.0000
  1401,'DP',    85.000,     0.000,     0.000,     0.000,1.00000,     0,   425.000, 0.00000E+0, 2.00000E-1, 0.00000E+0, 0.00000E+0,1.00000,1,  100.0,   403.750,     0.000,   1,1.0000,   0,   1.0,   0,   1.0,   0,   1.0,3, 1.0000
  1402,'DP',    70.000,     0.000,     0.000,     0.000,1.00000,     0,   349.000, 0.00000E+0, 2.00000E-1, 0.00000E+0, 0.00000E+0,1.00000,1,  100.0,   331.550,     0.000,   1,1.0000,   0,   1.0,   0,   1.0,   0,   1.0,3, 1.0000
  1431,'G ',  5129.000,   805.880,  3559.000, -3559.000,1.03500,  1401,  9170.000, 0.00000E+0, 2.00000E-1, 0.00000E+0, 0.00000E+0,1.00000,1,  100.0,  8711.500,     0.000,   1,1.0000
  1431,'N ',  2355.000,   370.023,  2057.000, -2057.000,1.03500,  1401,  4210.000, 0.00000E+0, 2.00000E-1, 0.00000E+0, 0.00000E+0,1.00000,1,  100.0,  3999.500,     0.000,   1,1.0000
  1431,'S ',  1353.000,   212.586,  1000.000, -1000.000,1.03500,  1401,  2419.000, 0.00000E+0, 2.00000E-1, 0.00000E+0, 0.00000E+0,1.00000,1,  100.0,  2298.050,     0.000,   1,1.0000,   0,   1.0,   0,   1.0,   0,   1.0,1, 1.0000
  2030,'E ',   605.000,    77.165,   350.000,  -350.000,1.00000,  2000,   699.000, 0.00000E+0, 2.00000E-1, 0.00000E+0, 0.00000E+0,1.00000,1,  100.0,   664.050,     0.000,   1,1.0000
  2030,'G ',  1853.000,   236.342,  1070.000, -1070.000,1.00000,  2000,  2140.000, 0.00000E+0, 2.00000E-1, 0.00000E+0, 0.00000E+0,1.00000,1,  100.0,  2033.000,     0.000,   1,1.0000
  2130,'E ',   573.000,    79.361,   254.000,  -254.000,1.03500,  2100,   831.000, 0.00000E+0, 2.00000E-1, 0.00000E+0, 0.00000E+0,1.00000,1,  100.0,   789.450,     0.000,   1,1.0000
  2130,'G ',   404.000,    55.955,   200.000,  -200.000,1.03500,  2100,   586.000, 0.00000E+0, 2.00000E-1, 0.00000E+0, 0.00000E+0,1.00000,1,  100.0,   556.700,     0.000,   1,1.0000
  2130,'H ',   273.000,    37.811,   250.000,  -250.000,1.03500,  2100,   396.000, 0.00000E+0, 2.00000E-1, 0.00000E+0, 0.00000E+0,1.00000,1,  100.0,   376.200,     0.000,   1,1.0000
  2130,'S ',    79.000,    10.942,    86.000,   -86.000,1.03500,  2100,   115.000, 0.00000E+0, 2.00000E-1, 0.00000E+0, 0.00000E+0,1.00000,1,  100.0,   109.250,     0.000,   1,1.0000,   0,   1.0,   0,   1.0,   0,   1.0,1, 1.0000
  2202,'DP',    61.000,     0.000,     0.000,     0.000,1.00000,     0,   305.000, 0.00000E+0, 2.00000E-1, 0.00000E+0, 0.00000E+0,1.00000,1,  100.0,   289.750,     0.000,   1,1.0000,   0,   1.0,   0,   1.0,   0,   1.0,3, 1.0000
  2203,'DP',    67.000,     0.000,     0.000,     0.000,1.00000,     0,   337.000, 0.00000E+0, 2.00000E-1, 0.00000E+0, 0.00000E+0,1.00000,1,  100.0,   320.150,     0.000,   1,1.0000,   0,   1.0,   0,   1.0,   0,   1.0,3, 1.0000
  2233,'DG',   285.000,   137.068,   304.000,  -304.000,1.00500,  2203,  1035.000, 0.00000E+0, 2.00000E-1, 0.00000E+0, 0.00000E+0,1.00000,1,  100.0,   983.250,     0.000,   1,1.0000
  2233,'EG',   506.000,   243.355,   611.000,  -611.000,1.00500,  2203,  1837.000, 0.00000E+0, 2.00000E-1, 0.00000E+0, 0.00000E+0,1.00000,1,  100.0,  1745.150,     0.000,   1,1.0000
  2233,'S ',     0.000,     0.000,     0.000,     0.000,1.00500,  2203,     1.000, 0.00000E+0, 2.00000E-1, 0.00000E+0, 0.00000E+0,1.00000,0,  100.0,     0.100,     0.000,   1,1.0000,   0,   1.0,   0,   1.0,   0,   1.0,1, 1.0000
  2233,'TG',   202.000,    97.150,   206.000,  -206.000,1.00500,  2203,   733.000, 0.00000E+0, 2.00000E-1, 0.00000E+0, 0.00000E+0,1.00000,1,  100.0,   696.350,     0.000,   1,1.0000
  2332,'S ',   878.000,   133.324,   590.000,  -590.000,1.03500,  2302,  1333.000, 0.00000E+0, 2.00000E-1, 0.00000E+0, 0.00000E+0,1.00000,1,  100.0,  1266.350,     0.000,   1,1.0000,   0,   1.0,   0,   1.0,   0,   1.0,1, 1.0000
  2400,'DP',    33.000,     0.000,     0.000,     0.000,1.00000,     0,   166.000, 0.00000E+0, 2.00000E-1, 0.00000E+0, 0.00000E+0,1.00000,1,  100.0,   157.700,     0.000,   1,1.0000,   0,   1.0,   0,   1.0,   0,   1.0,3, 1.0000
  2401,'DP',    35.000,     0.000,     0.000,     0.000,1.00000,     0,   174.000, 0.00000E+0, 2.00000E-1, 0.00000E+0, 0.00000E+0,1.00000,1,  100.0,   165.300,     0.000,   1,1.0000,   0,   1.0,   0,   1.0,   0,   1.0,3, 1.0000
  2402,'DP',    43.000,     0.000,     0.000,     0.000,1.00000,     0,   213.000, 0.00000E+0, 2.00000E-1, 0.00000E+0, 0.00000E+0,1.00000,1,  100.0,   202.350,     0.000,   1,1.0000,   0,   1.0,   0,   1.0,   0,   1.0,3, 1.0000
  2403,'DP',    41.000,     0.000,     0.000,     0.000,1.00000,     0,   207.000, 0.00000E+0, 2.00000E-1, 0.00000E+0, 0.00000E+0,1.00000,1,  100.0,   196.650,     0.000,   1,1.0000,   0,   1.0,   0,   1.0,   0,   1.0,3, 1.0000
  2405,'DP',    33.000,     0.000,     0.000,     0.000,1.00000,     0,   163.000, 0.00000E+0, 2.00000E-1, 0.00000E+0, 0.00000E+0,1.00000,1,  100.0,   154.850,     0.000,   1,1.0000,   0,   1.0,   0,   1.0,   0,   1.0,3, 1.0000
  2406,'DP',    29.000,     0.000,     0.000,     0.000,1.00000,     0,   145.000, 0.00000E+0, 2.00000E-1, 0.00000E+0, 0.00000E+0,1.00000,1,  100.0,   137.750,     0.000,   1,1.0000,   0,   1.0,   0,   1.0,   0,   1.0,3, 1.0000
  2407,'DP',    68.000,     0.000,     0.000,     0.000,1.00000,     0,   342.000, 0.00000E+0, 2.00000E-1, 0.00000E+0, 0.00000E+0,1.00000,1,  100.0,   324.900,     0.000,   1,1.0000,   0,   1.0,   0,   1.0,   0,   1.0,3, 1.0000
  2408,'DP',    69.000,     0.000,     0.000,     0.000,1.00000,     0,   344.000, 0.00000E+0, 2.00000E-1, 0.00000E+0, 0.00000E+0,1.00000,1,  100.0,   326.800,     0.000,   1,1.0000,   0,   1.0,   0,   1.0,   0,   1.0,3, 1.0000
  2409,'DP',    63.000,     0.000,     0.000,     0.000,1.00000,     0,   316.000, 0.00000E+0, 2.00000E-1, 0.00000E+0, 0.00000E+0,1.00000,1,  100.0,   300.200,     0.000,   1,1.0000,   0,   1.0,   0,   1.0,   0,   1.0,3, 1.0000
  2410,'DP',    62.000,     0.000,     0.000,     0.000,1.00000,     0,   311.000, 0.00000E+0, 2.00000E-1, 0.00000E+0, 0.00000E+0,1.00000,1,  100.0,   295.450,     0.000,   1,1.0000,   0,   1.0,   0,   1.0,   0,   1.0,3, 1.0000
  2411,'DP',    43.000,     0.000,     0.000,     0.000,1.00000,     0,   214.000, 0.00000E+0, 2.00000E-1, 0.00000E+0, 0.00000E+0,1.00000,1,  100.0,   203.300,     0.000,   1,1.0000,   0,   1.0,   0,   1.0,   0,   1.0,3, 1.0000
  2431,'S ',   500.000,   370.420,   800.000,  -800.000,1.05000,     0,  1666.000, 0.00000E+0, 2.00000E-1, 0.00000E+0, 0.00000E+0,1.00000,1,  100.0,  1582.700,     0.000,   1,1.0000,   0,   1.0,   0,   1.0,   0,   1.0,1, 1.0000
  2434,'S ',   500.000,  -206.486,   500.000,  -500.000,1.02000,     0,  1489.000, 0.00000E+0, 2.00000E-1, 0.00000E+0, 0.00000E+0,1.00000,1,  100.0,  1414.550,     0.000,   1,1.0000,   0,   1.0,   0,   1.0,   0,   1.0,1, 1.0000
  2438,'EG',   503.000,    28.727,   728.000,  -728.000,1.00900,  2408,  2292.000, 0.00000E+0, 2.00000E-1, 0.00000E+0, 0.00000E+0,1.00000,1,  100.0,  2177.400,     0.000,   1,1.0000
  2438,'ND',     0.000,     0.000,     0.500,     0.000,1.00900,  2408,   100.000, 0.00000E+0, 2.00000E-1, 0.00000E+0, 0.00000E+0,1.00000,1,  100.0,     0.000, -1006.000,   1,1.0000
  2438,'RG',  1196.000,    68.306,  1902.000, -1902.000,1.00900,  2408,  5451.000, 0.00000E+0, 2.00000E-1, 0.00000E+0, 0.00000E+0,1.00000,1,  100.0,  5178.450,     0.000,   1,1.0000
  2438,'S ',   251.000,    14.335,   800.000,  -800.000,1.00900,  2408,  1146.000, 0.00000E+0, 2.00000E-1, 0.00000E+0, 0.00000E+0,1.00000,1,  100.0,  1088.700,     0.000,   1,1.0000,   0,   1.0,   0,   1.0,   0,   1.0,1, 1.0000
  2438,'SG',   901.000,    51.458,  2301.000, -2301.000,1.00900,  2408,  4110.000, 0.00000E+0, 2.00000E-1, 0.00000E+0, 0.00000E+0,1.00000,1,  100.0,  3904.500,     0.000,   1,1.0000
  2438,'SH',   233.000,    13.307,   659.000,  -659.000,1.00900,  2408,  1460.000, 0.00000E+0, 2.00000E-1, 0.00000E+0, 0.00000E+0,1.00000,1,  100.0,  1387.000,     0.000,   1,1.0000
  2438,'SW',   704.000,    40.207,   561.000,  -561.000,1.00900,  2408,  3210.000, 0.00000E+0, 2.00000E-1, 0.00000E+0, 0.00000E+0,1.00000,1,  100.0,  3049.500,     0.000,   1,1.0000,   0,   1.0,   0,   1.0,   0,   1.0,1, 1.0000
  2438,'WG',  1276.000,    72.874,  1910.000, -1910.000,1.00900,  2408,  5817.000, 0.00000E+0, 2.00000E-1, 0.00000E+0, 0.00000E+0,1.00000,1,  100.0,  5526.150,     0.000,   1,1.0000
  2439,'S ',  1000.000,  -208.403,   800.000,  -800.000,1.02000,  2409,  1666.000, 0.00000E+0, 2.00000E-1, 0.00000E+0, 0.00000E+0,1.00000,1,  100.0,  1582.700,     0.000,   1,1.0000,   0,   1.0,   0,   1.0,   0,   1.0,1, 1.0000
  2502,'DP',    93.000,     0.000,     0.000,     0.000,1.00000,     0,   467.000, 0.00000E+0, 2.00000E-1, 0.00000E+0, 0.00000E+0,1.00000,1,  100.0,   443.650,     0.000,   1,1.0000,   0,   1.0,   0,   1.0,   0,   1.0,3, 1.0000
  2503,'DP',    73.000,     0.000,     0.000,     0.000,1.00000,     0,   364.000, 0.00000E+0, 2.00000E-1, 0.00000E+0, 0.00000E+0,1.00000,1,  100.0,   345.800,     0.000,   1,1.0000,   0,   1.0,   0,   1.0,   0,   1.0,3, 1.0000
  2533,'S ',  1899.000,   223.145,  1100.000, -1100.000,1.00900,  2503,  1999.000, 0.00000E+0, 2.00000E-1, 0.00000E+0, 0.00000E+0,1.00000,1,  100.0,  1899.050,     0.000,   1,1.0000,   0,   1.0,   0,   1.0,   0,   1.0,1, 1.0000
  2613,'DP',    13.000,     0.000,     0.000,     0.000,1.00000,     0,    63.000, 0.00000E+0, 2.00000E-1, 0.00000E+0, 0.00000E+0,1.00000,1,  100.0,    59.850,     0.000,   1,1.0000,   0,   1.0,   0,   1.0,   0,   1.0,3, 1.0000
  2615,'DP',    32.000,     0.000,     0.000,     0.000,1.00000,     0,   158.000, 0.00000E+0, 2.00000E-1, 0.00000E+0, 0.00000E+0,1.00000,1,  100.0,   150.100,     0.000,   1,1.0000,   0,   1.0,   0,   1.0,   0,   1.0,3, 1.0000
  2618,'DP',    35.000,     0.000,     0.000,     0.000,1.00000,     0,   174.000, 0.00000E+0, 2.00000E-1, 0.00000E+0, 0.00000E+0,1.00000,1,  100.0,   165.300,     0.000,   1,1.0000,   0,   1.0,   0,   1.0,   0,   1.0,3, 1.0000
  2630,'G ',  2282.000,   189.359,  1346.000, -1346.000,1.00400,  2610,  3947.000, 0.00000E+0, 2.00000E-1, 0.00000E+0, 0.00000E+0,1.00000,1,  100.0,  3749.650,     0.000,   1,1.0000
  2630,'S ',     0.000,     0.000,     0.000,     0.000,1.00400,  2610,     1.000, 0.00000E+0, 2.00000E-1, 0.00000E+0, 0.00000E+0,1.00000,0,  100.0,     0.100,     0.000,   1,1.0000,   0,   1.0,   0,   1.0,   0,   1.0,1, 1.0000
  2631,'S ',   232.000,    62.495,   350.000,  -350.000,1.01500,  2612,   520.000, 0.00000E+0, 2.00000E-1, 0.00000E+0, 0.00000E+0,1.00000,1,  100.0,   494.000,     0.000,   1,1.0000,   0,   1.0,   0,   1.0,   0,   1.0,1, 1.0000
  2634,'C ',  1537.000,   433.501,   950.000,  -950.000,1.06000,  2604,  1618.000, 0.00000E+0, 2.00000E-1, 0.00000E+0, 0.00000E+0,1.00000,1,  100.0,  1537.100,     0.000,   1,1.0000
  2634,'S ',     0.000,     0.000,     0.000,     0.000,1.06000,  2604,     1.000, 0.00000E+0, 2.00000E-1, 0.00000E+0, 0.00000E+0,1.00000,0,  100.0,     0.100,     0.000,   1,1.0000,   0,   1.0,   0,   1.0,   0,   1.0,1, 1.0000
  2637,'H ',    80.000,    62.495,   110.000,  -110.000,1.01500,  2612,    87.000, 0.00000E+0, 2.00000E-1, 0.00000E+0, 0.00000E+0,1.00000,1,  100.0,    82.650,     0.000,   1,1.0000
  2638,'H ',     0.000,    62.495,   100.000,  -100.000,1.01500,  2612,   407.000, 0.00000E+0, 2.00000E-1, 0.00000E+0, 0.00000E+0,1.00000,1,  100.0,   386.650,     0.000,   1,1.0000
  3101,'DP',    13.000,     0.000,     0.000,     0.000,1.00000,     0,    67.000, 0.00000E+0, 2.00000E-1, 0.00000E+0, 0.00000E+0,1.00000,1,  100.0,    63.650,     0.000,   1,1.0000,   0,   1.0,   0,   1.0,   0,   1.0,3, 1.0000
  3103,'DP',    17.000,     0.000,     0.000,     0.000,1.00000,     0,    83.000, 0.00000E+0, 2.00000E-1, 0.00000E+0, 0.00000E+0,1.00000,1,  100.0,    78.850,     0.000,   1,1.0000,   0,   1.0,   0,   1.0,   0,   1.0,3, 1.0000
  3104,'DP',    12.000,     0.000,     0.000,     0.000,1.00000,     0,    61.000, 0.00000E+0, 2.00000E-1, 0.00000E+0, 0.00000E+0,1.00000,1,  100.0,    57.950,     0.000,   1,1.0000,   0,   1.0,   0,   1.0,   0,   1.0,3, 1.0000
  3133,'NG',    31.000,    42.000,    42.000,   -42.000,1.00000,  3103,    62.000, 0.00000E+0, 2.00000E-1, 0.00000E+0, 0.00000E+0,1.00000,1,  100.0,    58.900,     0.000,   1,1.0000
  3133,'S ',     0.000,     0.000,     0.000,     0.000,1.00000,  3103,     1.000, 0.00000E+0, 2.00000E-1, 0.00000E+0, 0.00000E+0,1.00000,0,  100.0,     0.100,     0.000,   1,1.0000,   0,   1.0,   0,   1.0,   0,   1.0,1, 1.0000
  3133,'SC',     0.000,   194.477,   500.000,  -500.000,1.00000,  3103,   500.000, 0.00000E+0, 2.00000E-1, 0.00000E+0, 0.00000E+0,1.00000,1,  100.0,     0.100,     0.000,   1,1.0000
  3135,'MG',   206.000,    83.471,   239.000,  -239.000,1.00000,  3105,   541.000, 0.00000E+0, 2.00000E-1, 0.00000E+0, 0.00000E+0,1.00000,1,  100.0,   513.950,     0.000,   1,1.0000
  3135,'NG',    14.000,     5.673,   100.000,  -100.000,1.00000,  3105,    38.000, 0.00000E+0, 2.00000E-1, 0.00000E+0, 0.00000E+0,1.00000,1,  100.0,    36.100,     0.000,   1,1.0000
  3135,'S ',     0.000,     0.000,     0.000,     0.000,1.00000,  3105,     1.000, 0.00000E+0, 2.00000E-1, 0.00000E+0, 0.00000E+0,1.00000,0,  100.0,     0.100,     0.000,   1,1.0000,   0,   1.0,   0,   1.0,   0,   1.0,1, 1.0000
  3201,'DP',    18.000,     0.000,     0.000,     0.000,1.00000,     0,    91.000, 0.00000E+0, 2.00000E-1, 0.00000E+0, 0.00000E+0,1.00000,1,  100.0,    86.450,     0.000,   1,1.0000,   0,   1.0,   0,   1.0,   0,   1.0,3, 1.0000
  3202,'DP',    23.000,     0.000,     0.000,     0.000,1.00000,     0,   116.000, 0.00000E+0, 2.00000E-1, 0.00000E+0, 0.00000E+0,1.00000,1,  100.0,   110.200,     0.000,   1,1.0000,   0,   1.0,   0,   1.0,   0,   1.0,3, 1.0000
  3203,'DP',    26.000,     0.000,     0.000,     0.000,1.00000,     0,   130.000, 0.00000E+0, 2.00000E-1, 0.00000E+0, 0.00000E+0,1.00000,1,  100.0,   123.500,     0.000,   1,1.0000,   0,   1.0,   0,   1.0,   0,   1.0,3, 1.0000
  3204,'DP',    26.000,     0.000,     0.000,     0.000,1.00000,     0,   132.000, 0.00000E+0, 2.00000E-1, 0.00000E+0, 0.00000E+0,1.00000,1,  100.0,   125.400,     0.000,   1,1.0000,   0,   1.0,   0,   1.0,   0,   1.0,3, 1.0000
  3205,'DP',    22.000,     0.000,     0.000,     0.000,1.00000,     0,   108.000, 0.00000E+0, 2.00000E-1, 0.00000E+0, 0.00000E+0,1.00000,1,  100.0,   102.600,     0.000,   1,1.0000,   0,   1.0,   0,   1.0,   0,   1.0,3, 1.0000
  3234,'DG',   104.000,    12.392,   101.000,  -101.000,1.01000,  3204,   177.000, 0.00000E+0, 2.00000E-1, 0.00000E+0, 0.00000E+0,1.00000,1,  100.0,   168.150,     0.000,   1,1.0000
  3234,'MG',  2261.000,   269.402,  1244.000, -1244.000,1.01000,  3204,  3853.000, 0.00000E+0, 2.00000E-1, 0.00000E+0, 0.00000E+0,1.00000,1,  100.0,  3660.350,     0.000,   1,1.0000
  3234,'NG',   608.000,    72.444,   382.000,  -382.000,1.01000,  3204,  1037.000, 0.00000E+0, 2.00000E-1, 0.00000E+0, 0.00000E+0,1.00000,1,  100.0,   985.150,     0.000,   1,1.0000
  3234,'NW',  1021.000,   121.654,   150.000,  -150.000,1.01000,  3204,  1740.000, 0.00000E+0, 2.00000E-1, 0.00000E+0, 0.00000E+0,1.00000,1,  100.0,  1653.000,     0.000,   1,1.0000,   0,   1.0,   0,   1.0,   0,   1.0,1, 1.0000
  3234,'S ',     0.000,     0.000,     0.000,     0.000,1.01000,  3204,     1.000, 0.00000E+0, 2.00000E-1, 0.00000E+0, 0.00000E+0,1.00000,0,  100.0,     0.100,     0.000,   1,1.0000,   0,   1.0,   0,   1.0,   0,   1.0,1, 1.0000
  3302,'DP',    14.000,     0.000,     0.000,     0.000,1.00000,     0,    68.000, 0.00000E+0, 2.00000E-1, 0.00000E+0, 0.00000E+0,1.00000,1,  100.0,    64.600,     0.000,   1,1.0000,   0,   1.0,   0,   1.0,   0,   1.0,3, 1.0000
  3303,'DP',    25.000,     0.000,     0.000,     0.000,1.00000,     0,   123.000, 0.00000E+0, 2.00000E-1, 0.00000E+0, 0.00000E+0,1.00000,1,  100.0,   116.850,     0.000,   1,1.0000,   0,   1.0,   0,   1.0,   0,   1.0,3, 1.0000
  3304,'DP',    21.000,     0.000,     0.000,     0.000,1.00000,     0,   105.000, 0.00000E+0, 2.00000E-1, 0.00000E+0, 0.00000E+0,1.00000,1,  100.0,    99.750,     0.000,   1,1.0000,   0,   1.0,   0,   1.0,   0,   1.0,3, 1.0000
  3305,'DP',    17.000,     0.000,     0.000,     0.000,1.00000,     0,    85.000, 0.00000E+0, 2.00000E-1, 0.00000E+0, 0.00000E+0,1.00000,1,  100.0,    80.750,     0.000,   1,1.0000,   0,   1.0,   0,   1.0,   0,   1.0,3, 1.0000
  3333,'CG',   620.000,   350.235,   398.000,  -398.000,1.00000,  3303,  1012.000, 0.00000E+0, 2.00000E-1, 0.00000E+0, 0.00000E+0,1.00000,1,  100.0,   961.400,     0.000,   1,1.0000
  3333,'NG',   191.000,   107.895,   202.000,  -202.000,1.00000,  3303,   312.000, 0.00000E+0, 2.00000E-1, 0.00000E+0, 0.00000E+0,1.00000,1,  100.0,   296.400,     0.000,   1,1.0000
  3333,'S ',     0.000,     0.000,     0.000,     0.000,1.00000,  3303,     1.000, 0.00000E+0, 2.00000E-1, 0.00000E+0, 0.00000E+0,1.00000,0,  100.0,     0.100,     0.000,   1,1.0000,   0,   1.0,   0,   1.0,   0,   1.0,1, 1.0000
  3401,'DP',    22.000,     0.000,     0.000,     0.000,1.00000,     0,   110.000, 0.00000E+0, 2.00000E-1, 0.00000E+0, 0.00000E+0,1.00000,1,  100.0,   104.500,     0.000,   1,1.0000,   0,   1.0,   0,   1.0,   0,   1.0,3, 1.0000
  3403,'DP',    20.000,     0.000,     0.000,     0.000,1.00000,     0,   102.000, 0.00000E+0, 2.00000E-1, 0.00000E+0, 0.00000E+0,1.00000,1,  100.0,    96.900,     0.000,   1,1.0000,   0,   1.0,   0,   1.0,   0,   1.0,3, 1.0000
  3404,'DP',    17.000,     0.000,     0.000,     0.000,1.00000,     0,    86.000, 0.00000E+0, 2.00000E-1, 0.00000E+0, 0.00000E+0,1.00000,1,  100.0,    81.700,     0.000,   1,1.0000,   0,   1.0,   0,   1.0,   0,   1.0,3, 1.0000
  3405,'DP',    18.000,     0.000,     0.000,     0.000,1.00000,     0,    88.000, 0.00000E+0, 2.00000E-1, 0.00000E+0, 0.00000E+0,1.00000,1,  100.0,    83.600,     0.000,   1,1.0000,   0,   1.0,   0,   1.0,   0,   1.0,3, 1.0000
  3432,'NP',     0.000,   136.830,  1568.000, -1568.000,1.00000,  3402,  3746.000, 0.00000E+0, 2.00000E-1, 0.00000E+0, 0.00000E+0,1.00000,1,  100.0,  3558.700, -2841.000,   1,1.0000
  3433,'NG',   481.000,    21.575,   231.000,  -231.000,1.00000,  3403,   921.000, 0.00000E+0, 2.00000E-1, 0.00000E+0, 0.00000E+0,1.00000,1,  100.0,   874.950,     0.000,   1,1.0000
  3433,'S ',   745.000,    33.417,   939.000,  -939.000,1.00000,  3403,  1426.000, 0.00000E+0, 2.00000E-1, 0.00000E+0, 0.00000E+0,1.00000,1,  100.0,  1354.700,     0.000,   1,1.0000,   0,   1.0,   0,   1.0,   0,   1.0,1, 1.0000
  3501,'DP',    25.000,     0.000,     0.000,     0.000,1.00000,     0,   123.000, 0.00000E+0, 2.00000E-1, 0.00000E+0, 0.00000E+0,1.00000,1,  100.0,   116.850,     0.000,   1,1.0000,   0,   1.0,   0,   1.0,   0,   1.0,3, 1.0000
  3531,'CE',   783.000,    84.857,  1004.000, -1004.000,1.00000,  3501,  1424.000, 0.00000E+0, 2.00000E-1, 0.00000E+0, 0.00000E+0,1.00000,1,  100.0,  1352.800,     0.000,   1,1.0000
  3531,'NE',   293.000,    31.754,   253.000,  -253.000,1.00000,  3501,   533.000, 0.00000E+0, 2.00000E-1, 0.00000E+0, 0.00000E+0,1.00000,1,  100.0,   506.350,     0.000,   1,1.0000
  3531,'NH',    13.000,     1.409,    13.000,   -13.000,1.00000,  3501,    24.000, 0.00000E+0, 2.00000E-1, 0.00000E+0, 0.00000E+0,1.00000,1,  100.0,    22.800,     0.000,   1,1.0000
  3631,'NB',    30.000,    -2.736,    20.000,   -20.000,1.01500,  3601,    96.000, 0.00000E+0, 2.00000E-1, 0.00000E+0, 0.00000E+0,1.00000,1,  100.0,    91.200,     0.000,   1,1.0000
  3631,'NG',    67.000,    -6.110,    74.000,   -74.000,1.01500,  3601,   210.000, 0.00000E+0, 2.00000E-1, 0.00000E+0, 0.00000E+0,1.00000,1,  100.0,   199.500,     0.000,   1,1.0000
  3631,'S ',     0.000,     0.000,     0.000,     0.000,1.01500,  3601,     1.000, 0.00000E+0, 2.00000E-1, 0.00000E+0, 0.00000E+0,1.00000,0,  100.0,     0.100,     0.000,   1,1.0000,   0,   1.0,   0,   1.0,   0,   1.0,1, 1.0000
  3731,'NH',   222.000,   109.001,   200.000,  -200.000,1.00000,  3701,   243.000, 0.00000E+0, 2.00000E-1, 0.00000E+0, 0.00000E+0,1.00000,1,  100.0,   230.850,     0.000,   1,1.0000
  3805,'DP',    20.000,     0.000,     0.000,     0.000,1.00000,     0,    98.000, 0.00000E+0, 2.00000E-1, 0.00000E+0, 0.00000E+0,1.00000,1,  100.0,    93.100,     0.000,   1,1.0000,   0,   1.0,   0,   1.0,   0,   1.0,3, 1.0000
  3831,'NN',  2108.000,    40.303,  1175.000, -1175.000,1.04900,  3801,  2323.000, 0.00000E+0, 2.00000E-1, 0.00000E+0, 0.00000E+0,1.00000,1,  100.0,  2206.850,     0.000,   1,1.0000
  3835,'ND',     0.000,     0.000,     0.500,     0.000,1.03500,  3805,   100.000, 0.00000E+0, 2.00000E-1, 0.00000E+0, 0.00000E+0,1.00000,1,  100.0,     0.000,  -510.000,   1,1.0000
  3835,'NG',   229.000,    88.622,   662.000,  -662.000,1.03500,  3805,  2025.000, 0.00000E+0, 2.00000E-1, 0.00000E+0, 0.00000E+0,1.00000,1,  100.0,  1923.750,     0.000,   1,1.0000
  3835,'S ',   150.000,    58.049,   500.000,  -500.000,1.03500,  3805,  1333.000, 0.00000E+0, 2.00000E-1, 0.00000E+0, 0.00000E+0,1.00000,1,  100.0,  1266.350,     0.000,   1,1.0000,   0,   1.0,   0,   1.0,   0,   1.0,1, 1.0000
  3836,'DG',   679.000,     1.909,   476.000,  -476.000,1.01900,  3806,  1497.000, 0.00000E+0, 2.00000E-1, 0.00000E+0, 0.00000E+0,1.00000,1,  100.0,  1422.150,     0.000,   1,1.0000
  3836,'S ',     0.000,     0.000,     0.000,     0.000,1.01900,  3806,     1.000, 0.00000E+0, 2.00000E-1, 0.00000E+0, 0.00000E+0,1.00000,0,  100.0,     0.100,     0.000,   1,1.0000,   0,   1.0,   0,   1.0,   0,   1.0,1, 1.0000
...